@!IC, SBASE,REV,XFRRAT,NXFRAT,BASFRQ
0, 100.00, 34, 0, 1, 50.00 / PSS(R)E-34.9
Rev 34 header and switching-device test
Minimal RAW case for psse2mpc
GENERAL, THRSHZ=0.0001
SOLVER, FNSL, SWSHNT=2, FLATST=0
RATING, 1, "RATE1 ", "RATING SET 1"
0 / END OF SYSTEM-WIDE DATA, BEGIN BUS DATA
@!   I,'NAME        ', BASKV, IDE,AREA,ZONE,OWNER, VM,        VA,    NVHI,   NVLO,   EVHI,   EVLO
1,'BUS1        ', 230.0000,3,  10, 101,   1,1.00000,   0.0000,1.10000,0.90000,1.10000,0.90000
2,'BUS2        ', 230.0000,1,  20, 202,   2,1.00000,   0.0000,1.10000,0.90000,1.10000,0.90000
0 / END OF BUS DATA, BEGIN LOAD DATA
@!   I,'ID',STAT,AREA,ZONE,      PL,        QL,        IP,        IQ,        YP,        YQ, OWNER,SCALE,INTRPT,  DGENP,     DGENQ, DGENF
0 / END OF LOAD DATA, BEGIN FIXED SHUNT DATA
@!   I,'ID',STATUS,  GL,        BL
0 / END OF FIXED SHUNT DATA, BEGIN GENERATOR DATA
@!   I,'ID',      PG,        QG,        QT,        QB,     VS,    IREG,     MBASE,     ZR,         ZX,         RT,         XT,     GTAP,STAT, RMPCT,      PT,        PB,    O1,    F1
1,'1 ',     0.000,     0.000,   100.000,  -100.000,1.00000,     1,   100.000, 0.00000E+0, 0.00000E+0, 0.00000E+0, 0.00000E+0,1.00000,1,  100.0,   100.000,     0.000,   1,1.0000
0 / END OF GENERATOR DATA, BEGIN BRANCH DATA
@!   I,     J,'CKT',     R,          X,         B,                    'N A M E'                 ,   RATE1,   RATE2,   RATE3,   RATE4,   RATE5,   RATE6,   RATE7,   RATE8,   RATE9,  RATE10,  RATE11,  RATE12,    GI,       BI,       GJ,       BJ,STAT,MET,  LEN,  O1,  F1,    O2,  F2,    O3,  F3,    O4,  F4
1,2,'1 ', 1.00000E-02, 5.00000E-02,   0.10000,'REV34 META LINE                         ',  100.00,   90.00,   80.00,   77.00,   76.00,   75.00,   74.00,   73.00,   72.00,   71.00,   70.00,   69.00,  0.00100, -0.00200,  0.00300, -0.00400,1,2,  12.34,   1,0.5000,   2,0.2500,   3,0.1500,   4,0.1000
0 / END OF BRANCH DATA, BEGIN SYSTEM SWITCHING DEVICE DATA
@!   I,     J,'CKT',          X,   RATE1,   RATE2,   RATE3,   RATE4,   RATE5,   RATE6,   RATE7,   RATE8,   RATE9,  RATE10,  RATE11,  RATE12, STAT,NSTAT,  MET,STYPE,'NAME'
1,2,'@1', 1.00000E-4,   70.00,   60.00,   50.00,    0.00,    0.00,    0.00,    0.00,    0.00,    0.00,    0.00,    0.00,    0.00,    1,    1,    1,    2,'SW1                                     '
2,1,'@2', 1.00000E-4,   40.00,   30.00,   20.00,   19.00,   18.00,   17.00,   16.00,   15.00,   14.00,   13.00,   12.00,   11.00,    0,    1,    2,    3,'SW OPEN                                 '
1,2,'@3', 1.00000E-4,   17.00,   16.00,   15.00,   14.00,   13.00,   12.00,   11.00,   10.00,    9.00,    8.00,    7.00,    6.00,    2,    0,    2,    1,'SW STUCK                                '
0 / END OF SYSTEM SWITCHING DEVICE DATA, BEGIN TRANSFORMER DATA
@!   I,     J,     K,'CKT',CW,CZ,CM,     MAG1,        MAG2,NMETR,               'N A M E',               STAT,O1,  F1,    O2,  F2,    O3,  F3,    O4,  F4,     'VECGRP', ZCOD
1,2,0,'TX',1,2,1,   0.01000,  -0.02000,1,'ZERO NOMV XFMR',1
0.00000, 0.10000, 100.00
1.00000, 0.000, 0.000, 120.00, 120.00, 120.00, 0, 0, 1.10000, 0.90000, 1.10000, 0.90000, 33, 0, 0.00000, 0.00000
1.00000, 0.000
1,2,0,'TY',1,2,2,1000000.00000, 0.10000,1,'CM2 MAG XFMR ',1
0.00000, 0.10000, 100.00
1.00000, 230.000, 0.000, 120.00, 120.00, 120.00, 0, 0, 1.10000, 0.90000, 1.10000, 0.90000, 33, 0, 0.00000, 0.00000
1.00000, 230.000
0 / END OF TRANSFORMER DATA, BEGIN AREA DATA
@! I,   ISW,     PDES,      PTOL,    'ARNAME'
10,     1,    12.340,     0.500,'AREA NORTE  '
20,     2,   -12.340,     1.250,'AREA SUR    '
0 / END OF AREA DATA, BEGIN TWO-TERMINAL DC DATA
@!  'NAME',   MDC,     RDC,      SETVL,     VSCHD,     VCMOD,     RCOMP,    DELTI,METER    DCVMIN,CCCITMX, CCCACC
@! IPR,NBR,ANMXR,ANMNR,   RCR,    XCR,  EBASR,  TRR,    TAPR,   TMXR,   TMNR,   STPR,    ICR,   IFR,   ITR,'IDR', XCAPR,NDR
@! IPI,NBI,ANMXI,ANMNI,   RCI,    XCI,  EBASI,  TRI,    TAPI,   TMXI,   TMNI,   STPI,    ICI,   IFI,   ITI,'IDI', XCAPI,NDI
"DC BLOCK    ",0,   10.0000,    100.00,    500.00,    400.00,   10.0000,   0.10000,'R',      0.00,  20,   1.00000
     1,  1,17.50,12.50, 0.0000, 5.0000, 230.0,1.00000,1.00000,1.25000,0.92500,0.01250,     0,     0,     0,'1 ', 0.0000,  0
     2,  1,17.00,17.00, 0.0000, 5.0000, 230.0,1.00000,1.00000,1.30500,0.96600,0.01250,     0,     0,     0,'1 ', 0.0000,  0
"DC LOSS     ",1,   10.0000,    100.00,    500.00,    400.00,   10.0000,   0.10000,'R',      0.00,  20,   1.00000
     1,  1,17.50,12.50, 0.0000, 5.0000, 230.0,1.00000,1.00000,1.25000,0.92500,0.01250,     0,     0,     0,'1 ', 0.0000,  0
     2,  1,17.00,17.00, 0.0000, 5.0000, 230.0,1.00000,1.00000,1.30500,0.96600,0.01250,     0,     0,     0,'1 ', 0.0000,  0
0 / END OF TWO-TERMINAL DC DATA, BEGIN VSC DC LINE DATA
@!  'NAME',   MDC,     RDC,   O1,  F1
0 / END OF VSC DC LINE DATA, BEGIN IMPEDANCE CORRECTION DATA
@!I,   T1,    Re(F1),  Im(F1)
9, 1.00000, 1.00000, 0.00000, 0.00000, 0.00000, 0.00000
0 / END OF IMPEDANCE CORRECTION DATA, BEGIN MULTI-TERMINAL DC DATA
@!  'NAME',    NCONV,NDCBS,NDCLN,  MDC, VCONV,     VCMOD, VCONVN
0 / END OF MULTI-TERMINAL DC DATA, BEGIN MULTI-SECTION LINE DATA
@!   I,     J,'ID',MET,DUM1,  DUM2
0 / END OF MULTI-SECTION LINE DATA, BEGIN ZONE DATA
@! I,   'ZONAME'
101,'ZONA NORTE '
202,'ZONA SUR   '
0 / END OF ZONE DATA, BEGIN INTER-AREA TRANSFER DATA
@!ARFROM,ARTO,'TRID', PTRAN
0 / END OF INTER-AREA TRANSFER DATA, BEGIN OWNER DATA
@! I,   'OWNAME'
1,'OWNER BUS A '
2,'OWNER BUS B '
3,'OWNER LINE C'
4,'OWNER LINE D'
0 / END OF OWNER DATA, BEGIN FACTS DEVICE DATA
@!  'NAME',         I,     J,MODE,   PDES,      QDES,  VSET,      SHMX,      TRMX,   VTMN,   VTMX,   VSMX,      IMX,     LINX,   RMPCT,OWNER,    SET1,      SET2,VSREF, FCREG,   'MNAME'    ,NREG
"FACTS 1     ",     2,     0,   1,   0.000,     0.000,1.00000,   100.000,  9999.000,0.90000,1.10000,1.00000,     0.000, 0.05000,  100.0,   1,   0.00000,   0.00000,   0,     2,"            ",   0
0 / END OF FACTS DEVICE DATA, BEGIN SWITCHED SHUNT DATA
@!  I,MODSW,ADJM,ST, VSWHI,  VSWLO, SWREG,  RMPCT,   'RMIDNT',      BINIT,N1,     B1, NREG
2,  1,  0,  1,1.05000,0.95000,     2,  100.0,'            ',   12.50, 1,   12.50, 0
1,  0,  0,  0,1.00000,1.00000,     1,  100.0,'            ',  -99.00, 1,  -99.00, 0
0 / END OF SWITCHED SHUNT DATA, BEGIN GNE DATA
@!  'NAME',        'MODEL',     NTERM,BUS1...BUSNTERM,NREAL,NINTG,NCHAR
0 / END OF GNE DATA, BEGIN INDUCTION MACHINE DATA
@!   I,'ID',ST,SC,DC,AREA,ZONE,OWNER,TC,BC,  MBASE, RATEKV,PC
0 / END OF INDUCTION MACHINE DATA, BEGIN SUBSTATION DATA
0 / END OF SUBSTATION DATA
